gridlabd and database/gridlab-d-code-5225-trunk/models/SimpleMarket/GLD_Sample/Run_Electric_Fixed.glm
clock {
     timezone CST+6CDT;
     timestamp '2006-08-01 00:00:00';
     stoptime '2007-08-07 00:00:00';
}

#set profiler=1;
#set double_format=%+.12lg
#set savefile="Run_Electric_Fixed.xml"
#set randomseed=10;
#define stylesheet=http://gridlab-d.svn.sourceforge.net/viewvc/gridlab-d/trunk/core/gridlabd-2_0
#set relax_naming_rules=1;

#set minimum_timestep=60;
schedule large_1 {
     0-9 0 * * * 0.00;
     10-19 0 * * * 0.00;
     20-29 0 * * * 0.00;
     30-39 0 * * * 0.00;
     40-49 0 * * * 0.00;
     50-59 0 * * * 0.00;
     0-9 1 * * * 0.00;
     10-19 1 * * * 0.00;
     20-29 1 * * * 0.00;
     30-39 1 * * * 0.00;
     40-49 1 * * * 0.00;
     50-59 1 * * * 0.00;
     0-9 2 * * * 0.00;
     10-19 2 * * * 0.00;
     20-29 2 * * * 0.00;
     30-39 2 * * * 0.00;
     40-49 2 * * * 0.00;
     50-59 2 * * * 0.00;
     0-9 3 * * * 0.00;
     10-19 3 * * * 0.00;
     20-29 3 * * * 0.00;
     30-39 3 * * * 0.00;
     40-49 3 * * * 0.00;
     50-59 3 * * * 0.00;
     0-9 4 * * * 0.00;
     10-19 4 * * * 0.00;
     20-29 4 * * * 0.00;
     30-39 4 * * * 0.00;
     40-49 4 * * * 0.00;
     50-59 4 * * * 0.00;
     0-9 5 * * * 0.00;
     10-19 5 * * * 0.00;
     20-29 5 * * * 0.44;
     30-39 5 * * * 0.00;
     40-49 5 * * * 0.03;
     50-59 5 * * * 0.73;
     0-9 6 * * * 0.80;
     10-19 6 * * * 0.00;
     20-29 6 * * * 0.00;
     30-39 6 * * * 0.00;
     40-49 6 * * * 0.00;
     50-59 6 * * * 0.00;
     0-9 7 * * * 0.00;
     10-19 7 * * * 0.00;
     20-29 7 * * * 0.00;
     30-39 7 * * * 0.00;
     40-49 7 * * * 0.00;
     50-59 7 * * * 0.00;
     0-9 8 * * * 0.00;
     10-19 8 * * * 0.00;
     20-29 8 * * * 0.52;
     30-39 8 * * * 0.00;
     40-49 8 * * * 0.00;
     50-59 8 * * * 0.00;
     0-9 9 * * * 0.00;
     10-19 9 * * * 0.00;
     20-29 9 * * * 0.00;
     30-39 9 * * * 0.00;
     40-49 9 * * * 0.00;
     50-59 9 * * * 0.00;
     0-9 10 * * * 0.00;
     10-19 10 * * * 0.00;
     20-29 10 * * * 0.00;
     30-39 10 * * * 0.00;
     40-49 10 * * * 0.00;
     50-59 10 * * * 0.00;
     0-9 11 * * * 0.00;
     10-19 11 * * * 0.00;
     20-29 11 * * * 0.00;
     30-39 11 * * * 0.00;
     40-49 11 * * * 0.00;
     50-59 11 * * * 0.00;
     0-9 12 * * * 0.00;
     10-19 12 * * * 0.00;
     20-29 12 * * * 0.00;
     30-39 12 * * * 0.00;
     40-49 12 * * * 0.00;
     50-59 12 * * * 0.00;
     0-9 13 * * * 0.00;
     10-19 13 * * * 0.00;
     20-29 13 * * * 0.00;
     30-39 13 * * * 0.00;
     40-49 13 * * * 0.00;
     50-59 13 * * * 0.00;
     0-9 14 * * * 0.00;
     10-19 14 * * * 0.00;
     20-29 14 * * * 0.00;
     30-39 14 * * * 0.00;
     40-49 14 * * * 0.00;
     50-59 14 * * * 0.00;
     0-9 15 * * * 0.00;
     10-19 15 * * * 0.00;
     20-29 15 * * * 0.00;
     30-39 15 * * * 0.00;
     40-49 15 * * * 0.00;
     50-59 15 * * * 0.00;
     0-9 16 * * * 0.00;
     10-19 16 * * * 0.00;
     20-29 16 * * * 0.00;
     30-39 16 * * * 0.00;
     40-49 16 * * * 0.00;
     50-59 16 * * * 0.45;
     0-9 17 * * * 0.43;
     10-19 17 * * * 0.11;
     20-29 17 * * * 0.21;
     30-39 17 * * * 0.00;
     40-49 17 * * * 0.13;
     50-59 17 * * * 0.00;
     0-9 18 * * * 0.00;
     10-19 18 * * * 0.00;
     20-29 18 * * * 0.00;
     30-39 18 * * * 0.28;
     40-49 18 * * * 1.05;
     50-59 18 * * * 0.00;
     0-9 19 * * * 0.00;
     10-19 19 * * * 0.00;
     20-29 19 * * * 0.00;
     30-39 19 * * * 0.00;
     40-49 19 * * * 0.00;
     50-59 19 * * * 0.00;
     0-9 20 * * * 0.00;
     10-19 20 * * * 0.00;
     20-29 20 * * * 0.00;
     30-39 20 * * * 0.00;
     40-49 20 * * * 0.00;
     50-59 20 * * * 0.00;
     0-9 21 * * * 0.00;
     10-19 21 * * * 0.00;
     20-29 21 * * * 0.00;
     30-39 21 * * * 0.00;
     40-49 21 * * * 0.00;
     50-59 21 * * * 0.00;
     0-9 22 * * * 0.00;
     10-19 22 * * * 0.00;
     20-29 22 * * * 0.00;
     30-39 22 * * * 0.00;
     40-49 22 * * * 0.00;
     50-59 22 * * * 0.00;
     0-9 23 * * * 0.00;
     10-19 23 * * * 0.00;
     20-29 23 * * * 0.00;
     30-39 23 * * * 0.00;
     40-49 23 * * * 0.00;
     50-59 23 * * * 0.00;
}

schedule large_2 {
     0-9 0 * * * 0.00;
     10-19 0 * * * 0.00;
     20-29 0 * * * 0.00;
     30-39 0 * * * 0.00;
     40-49 0 * * * 0.00;
     50-59 0 * * * 0.00;
     0-9 1 * * * 0.00;
     10-19 1 * * * 0.00;
     20-29 1 * * * 0.00;
     30-39 1 * * * 0.00;
     40-49 1 * * * 0.00;
     50-59 1 * * * 0.00;
     0-9 2 * * * 0.00;
     10-19 2 * * * 0.00;
     20-29 2 * * * 0.00;
     30-39 2 * * * 0.00;
     40-49 2 * * * 0.00;
     50-59 2 * * * 0.00;
     0-9 3 * * * 0.00;
     10-19 3 * * * 0.00;
     20-29 3 * * * 0.00;
     30-39 3 * * * 0.00;
     40-49 3 * * * 0.00;
     50-59 3 * * * 0.00;
     0-9 4 * * * 0.00;
     10-19 4 * * * 0.00;
     20-29 4 * * * 0.00;
     30-39 4 * * * 0.00;
     40-49 4 * * * 0.00;
     50-59 4 * * * 0.00;
     0-9 5 * * * 0.00;
     10-19 5 * * * 0.99;
     20-29 5 * * * 0.00;
     30-39 5 * * * 0.36;
     40-49 5 * * * 0.00;
     50-59 5 * * * 1.37;
     0-9 6 * * * 0.00;
     10-19 6 * * * 0.00;
     20-29 6 * * * 0.00;
     30-39 6 * * * 0.00;
     40-49 6 * * * 0.00;
     50-59 6 * * * 0.00;
     0-9 7 * * * 0.00;
     10-19 7 * * * 0.00;
     20-29 7 * * * 0.00;
     30-39 7 * * * 0.00;
     40-49 7 * * * 0.00;
     50-59 7 * * * 0.00;
     0-9 8 * * * 0.00;
     10-19 8 * * * 0.00;
     20-29 8 * * * 0.00;
     30-39 8 * * * 0.00;
     40-49 8 * * * 0.00;
     50-59 8 * * * 0.66;
     0-9 9 * * * 0.00;
     10-19 9 * * * 0.00;
     20-29 9 * * * 0.00;
     30-39 9 * * * 0.00;
     40-49 9 * * * 0.00;
     50-59 9 * * * 0.00;
     0-9 10 * * * 0.00;
     10-19 10 * * * 0.00;
     20-29 10 * * * 0.00;
     30-39 10 * * * 0.00;
     40-49 10 * * * 0.00;
     50-59 10 * * * 0.00;
     0-9 11 * * * 0.00;
     10-19 11 * * * 0.00;
     20-29 11 * * * 0.00;
     30-39 11 * * * 0.00;
     40-49 11 * * * 0.00;
     50-59 11 * * * 0.00;
     0-9 12 * * * 0.00;
     10-19 12 * * * 0.00;
     20-29 12 * * * 0.00;
     30-39 12 * * * 0.00;
     40-49 12 * * * 0.00;
     50-59 12 * * * 0.00;
     0-9 13 * * * 0.00;
     10-19 13 * * * 0.00;
     20-29 13 * * * 0.00;
     30-39 13 * * * 0.00;
     40-49 13 * * * 0.00;
     50-59 13 * * * 0.00;
     0-9 14 * * * 0.00;
     10-19 14 * * * 0.00;
     20-29 14 * * * 0.00;
     30-39 14 * * * 0.00;
     40-49 14 * * * 0.00;
     50-59 14 * * * 0.00;
     0-9 15 * * * 0.00;
     10-19 15 * * * 0.00;
     20-29 15 * * * 0.00;
     30-39 15 * * * 0.00;
     40-49 15 * * * 0.00;
     50-59 15 * * * 0.00;
     0-9 16 * * * 0.00;
     10-19 16 * * * 0.00;
     20-29 16 * * * 0.00;
     30-39 16 * * * 0.00;
     40-49 16 * * * 0.00;
     50-59 16 * * * 0.09;
     0-9 17 * * * 1.43;
     10-19 17 * * * 0.00;
     20-29 17 * * * 0.00;
     30-39 17 * * * 0.00;
     40-49 17 * * * 0.00;
     50-59 17 * * * 0.00;
     0-9 18 * * * 0.00;
     10-19 18 * * * 0.00;
     20-29 18 * * * 2.39;
     30-39 18 * * * 0.00;
     40-49 18 * * * 0.00;
     50-59 18 * * * 0.00;
     0-9 19 * * * 0.00;
     10-19 19 * * * 0.00;
     20-29 19 * * * 0.00;
     30-39 19 * * * 0.00;
     40-49 19 * * * 0.00;
     50-59 19 * * * 0.00;
     0-9 20 * * * 0.00;
     10-19 20 * * * 0.00;
     20-29 20 * * * 0.00;
     30-39 20 * * * 0.00;
     40-49 20 * * * 0.00;
     50-59 20 * * * 0.00;
     0-9 21 * * * 0.00;
     10-19 21 * * * 0.00;
     20-29 21 * * * 0.00;
     30-39 21 * * * 0.00;
     40-49 21 * * * 0.00;
     50-59 21 * * * 0.00;
     0-9 22 * * * 0.00;
     10-19 22 * * * 0.00;
     20-29 22 * * * 0.00;
     30-39 22 * * * 0.00;
     40-49 22 * * * 0.00;
     50-59 22 * * * 0.00;
     0-9 23 * * * 0.00;
     10-19 23 * * * 0.00;
     20-29 23 * * * 0.00;
     30-39 23 * * * 0.00;
     40-49 23 * * * 0.00;
     50-59 23 * * * 0.00;
}

schedule large_3 {
     0-9 0 * * * 0.00;
     10-19 0 * * * 0.00;
     20-29 0 * * * 0.00;
     30-39 0 * * * 0.00;
     40-49 0 * * * 0.00;
     50-59 0 * * * 0.00;
     0-9 1 * * * 0.00;
     10-19 1 * * * 0.00;
     20-29 1 * * * 0.00;
     30-39 1 * * * 0.00;
     40-49 1 * * * 0.00;
     50-59 1 * * * 0.00;
     0-9 2 * * * 0.00;
     10-19 2 * * * 0.00;
     20-29 2 * * * 0.00;
     30-39 2 * * * 0.00;
     40-49 2 * * * 0.00;
     50-59 2 * * * 0.00;
     0-9 3 * * * 0.00;
     10-19 3 * * * 0.00;
     20-29 3 * * * 1.32;
     30-39 3 * * * 0.00;
     40-49 3 * * * 0.00;
     50-59 3 * * * 0.00;
     0-9 4 * * * 0.00;
     10-19 4 * * * 0.00;
     20-29 4 * * * 0.00;
     30-39 4 * * * 0.00;
     40-49 4 * * * 0.00;
     50-59 4 * * * 0.00;
     0-9 5 * * * 0.00;
     10-19 5 * * * 0.00;
     20-29 5 * * * 0.00;
     30-39 5 * * * 0.00;
     40-49 5 * * * 0.00;
     50-59 5 * * * 0.00;
     0-9 6 * * * 0.00;
     10-19 6 * * * 0.00;
     20-29 6 * * * 0.24;
     30-39 6 * * * 0.00;
     40-49 6 * * * 0.00;
     50-59 6 * * * 0.00;
     0-9 7 * * * 0.00;
     10-19 7 * * * 0.00;
     20-29 7 * * * 0.09;
     30-39 7 * * * 0.00;
     40-49 7 * * * 0.00;
     50-59 7 * * * 0.00;
     0-9 8 * * * 0.00;
     10-19 8 * * * 0.52;
     20-29 8 * * * 0.00;
     30-39 8 * * * 0.00;
     40-49 8 * * * 0.00;
     50-59 8 * * * 0.00;
     0-9 9 * * * 0.00;
     10-19 9 * * * 0.00;
     20-29 9 * * * 0.00;
     30-39 9 * * * 0.00;
     40-49 9 * * * 0.00;
     50-59 9 * * * 0.00;
     0-9 10 * * * 0.00;
     10-19 10 * * * 0.00;
     20-29 10 * * * 0.00;
     30-39 10 * * * 0.00;
     40-49 10 * * * 0.00;
     50-59 10 * * * 0.00;
     0-9 11 * * * 0.00;
     10-19 11 * * * 0.00;
     20-29 11 * * * 0.00;
     30-39 11 * * * 0.00;
     40-49 11 * * * 0.00;
     50-59 11 * * * 0.00;
     0-9 12 * * * 0.00;
     10-19 12 * * * 0.00;
     20-29 12 * * * 0.00;
     30-39 12 * * * 0.00;
     40-49 12 * * * 0.00;
     50-59 12 * * * 0.00;
     0-9 13 * * * 0.00;
     10-19 13 * * * 0.00;
     20-29 13 * * * 0.00;
     30-39 13 * * * 0.00;
     40-49 13 * * * 0.00;
     50-59 13 * * * 0.00;
     0-9 14 * * * 0.00;
     10-19 14 * * * 0.00;
     20-29 14 * * * 0.00;
     30-39 14 * * * 0.00;
     40-49 14 * * * 0.00;
     50-59 14 * * * 0.00;
     0-9 15 * * * 0.00;
     10-19 15 * * * 0.00;
     20-29 15 * * * 0.00;
     30-39 15 * * * 0.00;
     40-49 15 * * * 0.00;
     50-59 15 * * * 0.00;
     0-9 16 * * * 0.00;
     10-19 16 * * * 0.00;
     20-29 16 * * * 0.00;
     30-39 16 * * * 0.00;
     40-49 16 * * * 0.34;
     50-59 16 * * * 0.74;
     0-9 17 * * * 0.00;
     10-19 17 * * * 0.00;
     20-29 17 * * * 0.49;
     30-39 17 * * * 0.00;
     40-49 17 * * * 0.00;
     50-59 17 * * * 0.00;
     0-9 18 * * * 0.00;
     10-19 18 * * * 0.00;
     20-29 18 * * * 0.00;
     30-39 18 * * * 0.00;
     40-49 18 * * * 0.04;
     50-59 18 * * * 0.00;
     0-9 19 * * * 0.00;
     10-19 19 * * * 0.00;
     20-29 19 * * * 0.00;
     30-39 19 * * * 0.63;
     40-49 19 * * * 0.00;
     50-59 19 * * * 0.00;
     0-9 20 * * * 0.00;
     10-19 20 * * * 0.00;
     20-29 20 * * * 0.00;
     30-39 20 * * * 0.00;
     40-49 20 * * * 0.00;
     50-59 20 * * * 0.00;
     0-9 21 * * * 0.00;
     10-19 21 * * * 0.00;
     20-29 21 * * * 0.00;
     30-39 21 * * * 0.00;
     40-49 21 * * * 0.00;
     50-59 21 * * * 0.00;
     0-9 22 * * * 0.00;
     10-19 22 * * * 0.00;
     20-29 22 * * * 0.00;
     30-39 22 * * * 0.00;
     40-49 22 * * * 0.00;
     50-59 22 * * * 0.00;
     0-9 23 * * * 0.00;
     10-19 23 * * * 0.00;
     20-29 23 * * * 0.00;
     30-39 23 * * * 0.00;
     40-49 23 * * * 0.00;
     50-59 23 * * * 0.00;
}

schedule small_1 {
     0-9 0 * * * 0.00;
     10-19 0 * * * 0.00;
     20-29 0 * * * 0.00;
     30-39 0 * * * 0.00;
     40-49 0 * * * 0.00;
     50-59 0 * * * 0.00;
     0-9 1 * * * 0.00;
     10-19 1 * * * 0.00;
     20-29 1 * * * 0.00;
     30-39 1 * * * 0.00;
     40-49 1 * * * 0.00;
     50-59 1 * * * 0.00;
     0-9 2 * * * 0.00;
     10-19 2 * * * 0.00;
     20-29 2 * * * 0.00;
     30-39 2 * * * 0.00;
     40-49 2 * * * 0.00;
     50-59 2 * * * 0.00;
     0-9 3 * * * 0.00;
     10-19 3 * * * 0.00;
     20-29 3 * * * 0.00;
     30-39 3 * * * 0.00;
     40-49 3 * * * 0.00;
     50-59 3 * * * 0.00;
     0-9 4 * * * 0.00;
     10-19 4 * * * 0.00;
     20-29 4 * * * 0.00;
     30-39 4 * * * 0.00;
     40-49 4 * * * 0.00;
     50-59 4 * * * 0.00;
     0-9 5 * * * 0.00;
     10-19 5 * * * 0.00;
     20-29 5 * * * 0.00;
     30-39 5 * * * 0.00;
     40-49 5 * * * 0.12;
     50-59 5 * * * 1.20;
     0-9 6 * * * 0.00;
     10-19 6 * * * 0.00;
     20-29 6 * * * 0.00;
     30-39 6 * * * 0.00;
     40-49 6 * * * 0.00;
     50-59 6 * * * 0.00;
     0-9 7 * * * 0.00;
     10-19 7 * * * 0.00;
     20-29 7 * * * 0.00;
     30-39 7 * * * 0.00;
     40-49 7 * * * 0.00;
     50-59 7 * * * 0.00;
     0-9 8 * * * 0.00;
     10-19 8 * * * 0.00;
     20-29 8 * * * 0.00;
     30-39 8 * * * 0.00;
     40-49 8 * * * 0.00;
     50-59 8 * * * 0.00;
     0-9 9 * * * 0.00;
     10-19 9 * * * 0.00;
     20-29 9 * * * 0.00;
     30-39 9 * * * 0.00;
     40-49 9 * * * 0.00;
     50-59 9 * * * 0.00;
     0-9 10 * * * 0.00;
     10-19 10 * * * 0.00;
     20-29 10 * * * 0.00;
     30-39 10 * * * 0.00;
     40-49 10 * * * 0.00;
     50-59 10 * * * 0.00;
     0-9 11 * * * 0.00;
     10-19 11 * * * 0.00;
     20-29 11 * * * 0.00;
     30-39 11 * * * 0.00;
     40-49 11 * * * 0.00;
     50-59 11 * * * 0.00;
     0-9 12 * * * 0.00;
     10-19 12 * * * 0.00;
     20-29 12 * * * 0.00;
     30-39 12 * * * 0.00;
     40-49 12 * * * 0.00;
     50-59 12 * * * 0.00;
     0-9 13 * * * 0.00;
     10-19 13 * * * 0.00;
     20-29 13 * * * 0.00;
     30-39 13 * * * 0.00;
     40-49 13 * * * 0.00;
     50-59 13 * * * 0.00;
     0-9 14 * * * 0.00;
     10-19 14 * * * 0.00;
     20-29 14 * * * 0.00;
     30-39 14 * * * 0.00;
     40-49 14 * * * 0.00;
     50-59 14 * * * 0.00;
     0-9 15 * * * 0.00;
     10-19 15 * * * 0.00;
     20-29 15 * * * 0.00;
     30-39 15 * * * 0.00;
     40-49 15 * * * 0.00;
     50-59 15 * * * 0.00;
     0-9 16 * * * 0.00;
     10-19 16 * * * 0.00;
     20-29 16 * * * 0.00;
     30-39 16 * * * 0.00;
     40-49 16 * * * 0.00;
     50-59 16 * * * 1.23;
     0-9 17 * * * 0.00;
     10-19 17 * * * 0.00;
     20-29 17 * * * 0.00;
     30-39 17 * * * 0.00;
     40-49 17 * * * 0.00;
     50-59 17 * * * 0.00;
     0-9 18 * * * 0.00;
     10-19 18 * * * 0.00;
     20-29 18 * * * 0.00;
     30-39 18 * * * 0.00;
     40-49 18 * * * 0.00;
     50-59 18 * * * 0.00;
     0-9 19 * * * 0.00;
     10-19 19 * * * 0.00;
     20-29 19 * * * 0.00;
     30-39 19 * * * 0.00;
     40-49 19 * * * 0.00;
     50-59 19 * * * 0.00;
     0-9 20 * * * 0.00;
     10-19 20 * * * 0.00;
     20-29 20 * * * 0.00;
     30-39 20 * * * 0.00;
     40-49 20 * * * 0.00;
     50-59 20 * * * 0.00;
     0-9 21 * * * 0.00;
     10-19 21 * * * 0.00;
     20-29 21 * * * 0.00;
     30-39 21 * * * 0.00;
     40-49 21 * * * 0.00;
     50-59 21 * * * 0.00;
     0-9 22 * * * 0.00;
     10-19 22 * * * 0.00;
     20-29 22 * * * 0.00;
     30-39 22 * * * 0.00;
     40-49 22 * * * 0.00;
     50-59 22 * * * 0.00;
     0-9 23 * * * 0.00;
     10-19 23 * * * 0.00;
     20-29 23 * * * 0.00;
     30-39 23 * * * 0.00;
     40-49 23 * * * 0.00;
     50-59 23 * * * 0.00;
}

schedule small_2 {
     0-9 0 * * * 0.00;
     10-19 0 * * * 0.00;
     20-29 0 * * * 0.00;
     30-39 0 * * * 0.00;
     40-49 0 * * * 0.00;
     50-59 0 * * * 0.00;
     0-9 1 * * * 0.00;
     10-19 1 * * * 0.00;
     20-29 1 * * * 0.00;
     30-39 1 * * * 0.00;
     40-49 1 * * * 0.00;
     50-59 1 * * * 0.00;
     0-9 2 * * * 0.00;
     10-19 2 * * * 0.00;
     20-29 2 * * * 0.00;
     30-39 2 * * * 0.00;
     40-49 2 * * * 0.00;
     50-59 2 * * * 0.00;
     0-9 3 * * * 0.00;
     10-19 3 * * * 0.00;
     20-29 3 * * * 0.00;
     30-39 3 * * * 0.00;
     40-49 3 * * * 0.00;
     50-59 3 * * * 0.00;
     0-9 4 * * * 0.00;
     10-19 4 * * * 0.00;
     20-29 4 * * * 0.00;
     30-39 4 * * * 0.00;
     40-49 4 * * * 0.00;
     50-59 4 * * * 0.41;
     0-9 5 * * * 0.00;
     10-19 5 * * * 0.00;
     20-29 5 * * * 0.28;
     30-39 5 * * * 0.00;
     40-49 5 * * * 0.00;
     50-59 5 * * * 1.06;
     0-9 6 * * * 0.00;
     10-19 6 * * * 0.00;
     20-29 6 * * * 0.00;
     30-39 6 * * * 0.00;
     40-49 6 * * * 0.00;
     50-59 6 * * * 0.00;
     0-9 7 * * * 0.00;
     10-19 7 * * * 0.00;
     20-29 7 * * * 0.00;
     30-39 7 * * * 0.00;
     40-49 7 * * * 0.00;
     50-59 7 * * * 0.00;
     0-9 8 * * * 0.00;
     10-19 8 * * * 0.00;
     20-29 8 * * * 0.00;
     30-39 8 * * * 0.00;
     40-49 8 * * * 0.00;
     50-59 8 * * * 0.00;
     0-9 9 * * * 0.00;
     10-19 9 * * * 0.00;
     20-29 9 * * * 0.00;
     30-39 9 * * * 0.00;
     40-49 9 * * * 0.00;
     50-59 9 * * * 0.00;
     0-9 10 * * * 0.00;
     10-19 10 * * * 0.00;
     20-29 10 * * * 0.00;
     30-39 10 * * * 0.00;
     40-49 10 * * * 0.00;
     50-59 10 * * * 0.00;
     0-9 11 * * * 0.00;
     10-19 11 * * * 0.00;
     20-29 11 * * * 0.00;
     30-39 11 * * * 0.00;
     40-49 11 * * * 0.00;
     50-59 11 * * * 0.00;
     0-9 12 * * * 0.00;
     10-19 12 * * * 0.00;
     20-29 12 * * * 0.00;
     30-39 12 * * * 0.00;
     40-49 12 * * * 0.00;
     50-59 12 * * * 0.00;
     0-9 13 * * * 0.00;
     10-19 13 * * * 0.00;
     20-29 13 * * * 0.00;
     30-39 13 * * * 0.00;
     40-49 13 * * * 0.00;
     50-59 13 * * * 0.00;
     0-9 14 * * * 0.00;
     10-19 14 * * * 0.00;
     20-29 14 * * * 0.00;
     30-39 14 * * * 0.00;
     40-49 14 * * * 0.00;
     50-59 14 * * * 0.00;
     0-9 15 * * * 0.00;
     10-19 15 * * * 0.00;
     20-29 15 * * * 0.00;
     30-39 15 * * * 0.00;
     40-49 15 * * * 0.00;
     50-59 15 * * * 0.00;
     0-9 16 * * * 0.41;
     10-19 16 * * * 0.00;
     20-29 16 * * * 0.00;
     30-39 16 * * * 0.00;
     40-49 16 * * * 0.00;
     50-59 16 * * * 0.00;
     0-9 17 * * * 0.28;
     10-19 17 * * * 0.00;
     20-29 17 * * * 0.00;
     30-39 17 * * * 1.49;
     40-49 17 * * * 0.00;
     50-59 17 * * * 0.00;
     0-9 18 * * * 0.00;
     10-19 18 * * * 0.00;
     20-29 18 * * * 0.00;
     30-39 18 * * * 0.00;
     40-49 18 * * * 0.00;
     50-59 18 * * * 0.00;
     0-9 19 * * * 0.00;
     10-19 19 * * * 0.00;
     20-29 19 * * * 0.00;
     30-39 19 * * * 0.00;
     40-49 19 * * * 0.00;
     50-59 19 * * * 0.00;
     0-9 20 * * * 0.00;
     10-19 20 * * * 0.00;
     20-29 20 * * * 0.00;
     30-39 20 * * * 0.00;
     40-49 20 * * * 0.00;
     50-59 20 * * * 0.00;
     0-9 21 * * * 0.00;
     10-19 21 * * * 0.00;
     20-29 21 * * * 0.00;
     30-39 21 * * * 0.00;
     40-49 21 * * * 0.00;
     50-59 21 * * * 0.00;
     0-9 22 * * * 0.00;
     10-19 22 * * * 0.00;
     20-29 22 * * * 0.00;
     30-39 22 * * * 0.00;
     40-49 22 * * * 0.00;
     50-59 22 * * * 0.00;
     0-9 23 * * * 0.00;
     10-19 23 * * * 0.00;
     20-29 23 * * * 0.00;
     30-39 23 * * * 0.00;
     40-49 23 * * * 0.00;
     50-59 23 * * * 0.00;
}

schedule small_3 {
     0-9 0 * * * 0.00;
     10-19 0 * * * 0.00;
     20-29 0 * * * 0.00;
     30-39 0 * * * 0.00;
     40-49 0 * * * 0.00;
     50-59 0 * * * 0.00;
     0-9 1 * * * 0.00;
     10-19 1 * * * 0.00;
     20-29 1 * * * 0.00;
     30-39 1 * * * 0.00;
     40-49 1 * * * 0.00;
     50-59 1 * * * 0.00;
     0-9 2 * * * 0.00;
     10-19 2 * * * 0.00;
     20-29 2 * * * 0.00;
     30-39 2 * * * 0.00;
     40-49 2 * * * 0.00;
     50-59 2 * * * 0.00;
     0-9 3 * * * 0.00;
     10-19 3 * * * 0.00;
     20-29 3 * * * 0.00;
     30-39 3 * * * 0.14;
     40-49 3 * * * 0.00;
     50-59 3 * * * 0.00;
     0-9 4 * * * 0.00;
     10-19 4 * * * 0.00;
     20-29 4 * * * 0.00;
     30-39 4 * * * 0.00;
     40-49 4 * * * 0.00;
     50-59 4 * * * 0.17;
     0-9 5 * * * 0.00;
     10-19 5 * * * 0.00;
     20-29 5 * * * 0.00;
     30-39 5 * * * 0.00;
     40-49 5 * * * 0.13;
     50-59 5 * * * 1.24;
     0-9 6 * * * 0.00;
     10-19 6 * * * 0.00;
     20-29 6 * * * 0.00;
     30-39 6 * * * 0.00;
     40-49 6 * * * 0.00;
     50-59 6 * * * 0.00;
     0-9 7 * * * 0.00;
     10-19 7 * * * 0.00;
     20-29 7 * * * 0.00;
     30-39 7 * * * 0.69;
     40-49 7 * * * 0.00;
     50-59 7 * * * 0.00;
     0-9 8 * * * 0.00;
     10-19 8 * * * 0.00;
     20-29 8 * * * 0.00;
     30-39 8 * * * 0.00;
     40-49 8 * * * 0.00;
     50-59 8 * * * 0.00;
     0-9 9 * * * 0.00;
     10-19 9 * * * 0.00;
     20-29 9 * * * 0.00;
     30-39 9 * * * 0.00;
     40-49 9 * * * 0.00;
     50-59 9 * * * 0.00;
     0-9 10 * * * 0.00;
     10-19 10 * * * 0.00;
     20-29 10 * * * 0.00;
     30-39 10 * * * 0.00;
     40-49 10 * * * 0.00;
     50-59 10 * * * 0.00;
     0-9 11 * * * 0.00;
     10-19 11 * * * 0.00;
     20-29 11 * * * 0.00;
     30-39 11 * * * 0.00;
     40-49 11 * * * 0.00;
     50-59 11 * * * 0.00;
     0-9 12 * * * 0.00;
     10-19 12 * * * 0.00;
     20-29 12 * * * 0.00;
     30-39 12 * * * 0.00;
     40-49 12 * * * 0.00;
     50-59 12 * * * 0.00;
     0-9 13 * * * 0.00;
     10-19 13 * * * 0.00;
     20-29 13 * * * 0.00;
     30-39 13 * * * 0.00;
     40-49 13 * * * 0.00;
     50-59 13 * * * 0.00;
     0-9 14 * * * 0.00;
     10-19 14 * * * 0.00;
     20-29 14 * * * 0.00;
     30-39 14 * * * 0.00;
     40-49 14 * * * 0.00;
     50-59 14 * * * 0.00;
     0-9 15 * * * 0.00;
     10-19 15 * * * 0.00;
     20-29 15 * * * 0.00;
     30-39 15 * * * 0.00;
     40-49 15 * * * 0.00;
     50-59 15 * * * 0.00;
     0-9 16 * * * 0.00;
     10-19 16 * * * 0.39;
     20-29 16 * * * 0.00;
     30-39 16 * * * 0.00;
     40-49 16 * * * 0.00;
     50-59 16 * * * 1.59;
     0-9 17 * * * 0.00;
     10-19 17 * * * 0.00;
     20-29 17 * * * 0.00;
     30-39 17 * * * 0.00;
     40-49 17 * * * 0.00;
     50-59 17 * * * 0.00;
     0-9 18 * * * 0.00;
     10-19 18 * * * 0.00;
     20-29 18 * * * 0.15;
     30-39 18 * * * 0.00;
     40-49 18 * * * 0.00;
     50-59 18 * * * 0.00;
     0-9 19 * * * 0.00;
     10-19 19 * * * 0.00;
     20-29 19 * * * 0.00;
     30-39 19 * * * 0.00;
     40-49 19 * * * 0.00;
     50-59 19 * * * 0.42;
     0-9 20 * * * 0.00;
     10-19 20 * * * 0.00;
     20-29 20 * * * 0.00;
     30-39 20 * * * 0.00;
     40-49 20 * * * 0.00;
     50-59 20 * * * 0.00;
     0-9 21 * * * 0.00;
     10-19 21 * * * 0.00;
     20-29 21 * * * 0.00;
     30-39 21 * * * 0.00;
     40-49 21 * * * 0.00;
     50-59 21 * * * 0.00;
     0-9 22 * * * 0.00;
     10-19 22 * * * 0.00;
     20-29 22 * * * 0.00;
     30-39 22 * * * 0.00;
     40-49 22 * * * 0.00;
     50-59 22 * * * 0.00;
     0-9 23 * * * 0.00;
     10-19 23 * * * 0.00;
     20-29 23 * * * 0.00;
     30-39 23 * * * 0.00;
     40-49 23 * * * 0.00;
     50-59 23 * * * 0.00;
}

schedule heating1 {
     //Winter
    * 0-4 * 1-4,11-12 * 0;
    0-29 5 * 1-4,11-12 * 0;
    30-59 5 * 1-4,11-12 * 1;
    * 6-20 * 1-4,11-12 * 1;
    0-29 21 * 1-4,11-12 * 1;
    30-59 21 * 1-4,11-12 * 0;
    * 22-23 * 1-4,11-12 * 0;

     //Summer
     * * * 5-10 * -4;
}

schedule heating2 {
     //Winter
    * 0-4 * 1-4,11-12 * 0;
    0-44 5 * 1-4,11-12 * 0;
    45-59 5 * 1-4,11-12 * 1;
    * 6-21 * 1-4,11-12 * 1;
    0-44 22 * 1-4,11-12 * 1;
    45-59 22 * 1-4,11-12 * 0;
    * 23 * 1-4,11-12 * 0;

     //Summer
     * * * 5-10 * -4;
}

schedule heating3 {
     //Winter
    * 0-5 * 1-4,11-12 * 0;
    * 6-21 * 1-4,11-12 * 1;
    0-14 22 * 1-4,11-12 * 1;
    15-59 22 * 1-4,11-12 * 0;
    * 23 * 1-4,11-12 * 0;

     //Summer
     * * * 5-10 * -4;
}

schedule heating4 {
     //Winter
    * 0-5 * 1-4,11-12 * 0;
    0-14 6 * 1-4,11-12 * 0;
    15-59 6 * 1-4,11-12 * 1;
    * 7-21 * 1-4,11-12 * 1;
    * 22-23 * 1-4,11-12 * 0;

     //Summer
     * * * 5-10 * -4;
}

schedule heating5 {
     //Winter
    * 0-5 * 1-4,11-12 * 0;
    0-29 6 * 1-4,11-12 * 0;
    30-59 6 * 1-4,11-12 * 1;
    * 7-22 * 1-4,11-12 * 1;
    0-14 23 * 1-4,11-12 * 1;
    15-59 23 * 1-4,11-12 * 0;

     //Summer
     * * * 5-10 * -4;
}

schedule heating6 {
     //Winter
    * 0-5 * 1-4,11-12 * 0;
    0-44 6 * 1-4,11-12 * 0;
    45-59 6 * 1-4,11-12 * 1;
    * 7-20 * 1-4,11-12 * 1;
    0-44 21 * 1-4,11-12 * 1;
    45-59 21 * 1-4,11-12 * 0;
    * 22-23 * 1-4,11-12 * 0;

     //Summer
     * * * 5-10 * -4;
}

schedule heating7 {
     //Winter
    * 0-6 * 1-4,11-12 * 0;
    * 7-21 * 1-4,11-12 * 1;
    0-29 22 * 1-4,11-12 * 1;
    30-59 22 * 1-4,11-12 * 0;
    * 23 * 1-4,11-12 * 0;

     //Summer
     * * * 5-10 * -4;
}

schedule heating8 {
     //Winter
    * 0-6 * 1-4,11-12 * 0;
    0-14 7 * 1-4,11-12 * 0;
    15-59 7 * 1-4,11-12 * 1;
    * 8-22 * 1-4,11-12 * 1;
    0-29 23 * 1-4,11-12 * 1;
    30-59 23 * 1-4,11-12 * 0;

     //Summer
     * * * 5-10 * -4;
}

schedule heating9 {
     //Winter
    * 0-6 * 1-4,11-12 * 0;
    0-29 7 * 1-4,11-12 * 0;
    30-59 7 * 1-4,11-12 * 1;
    * 8-22 * 1-4,11-12 * 1;
    * 23 * 1-4,11-12 * 0;

     //Summer
     * * * 5-10 * -4;
}

schedule cooling1 {
     //Summer
    * 0-4 * 5-10 * 0;
    0-29 5 * 5-10 * 0;
    30-59 5 * 5-10 * 2;
    * 6-16 * 5-10 * 2;
    0-29 17 * 5-10 * 2;
     30-59 17 * 5-10 * 1;
     * 18-20 * 5-10 * 1;
     0-29 21 * 5-10 * 1;
    30-59 21 * 5-10 * 0;
    * 22-23 * 5-10 * 0;

     //Winter
     * * * 1-4,11-12 * 4;
}

schedule cooling2 {
     //Summer
    * 0-4 * 5-10 * 0;
    0-44 5 * 5-10 * 0;
    45-59 5 * 5-10 * 2;
    * 6-16 * 5-10 * 2;
    * 17-21 * 5-10 * 1;
     0-44 22 * 5-10 * 1;
    45-59 22 * 5-10 * 0;
    * 23 * 5-10 * 0;

     //Winter
     * * * 1-4,11-12 * 4;
}

schedule cooling3 {
     //Summer
    * 0-5 * 5-10 * 0;
    * 6-13 * 5-10 * 2;
    0-29 14 * 5-10 * 2;
    30-59 14 * 5-10 * 1;
     0-14 22 * 5-10 * 1;
    15-59 22 * 5-10 * 0;
    * 23 * 5-10 * 0;

     //Winter
     * * * 1-4,11-12 * 4;
}

schedule cooling4 {
     //Summer
    * 0-5 * 5-10 * 0;
    0-14 6 * 5-10 * 0;
    15-59 6 * 5-10 * 2;
    * 7-18 * 5-10 * 2;
    * 19-21 * 5-10 * 1;
    * 22-23 * 5-10 * 0;

     //Winter
     * * * 1-4,11-12 * 4;
}

schedule cooling5 {
     //Summer
    * 0-5 * 5-10 * 0;
    0-29 6 * 5-10 * 0;
    30-59 6 * 5-10 * 1;
    * 7-17 * 5-10 * 2;
    0-29 18 * 5-10 * 2;
    30-59 18 * 5-10 * 1;
    * 19-22 * 5-10 * 1;
     0-14 23 * 5-10 * 1;
    15-59 23 * 5-10 * 0;

     //Winter
     * * * 1-4,11-12 * 4;
}

schedule cooling6 {
     //Summer
    * 0-5 * 5-10 * 0;
    0-44 6 * 5-10 * 0;
    45-59 6 * 5-10 * 2;
    * 7-16 * 5-10 * 2;
    0-14 17 * 5-10 * 2;
    15-59 18 * 5-10 * 1;
    * 19-20 * 5-10 * 1;
    0-44 21 * 5-10 * 1;
    45-59 21 * 5-10 * 0;
    * 22-23 * 5-10 * 0;

     //Winter
     * * * 1-4,11-12 * 4;
}

schedule cooling7 {
     //Summer
    * 0-6 * 5-10 * 0;
    * 7-17 * 5-10 * 2;
    0-14 18 * 5-10 * 2;
    15-59 18 * 5-10 * 1;
    * 19-21 * 5-10 * 1;
    0-29 22 * 5-10 * 1;
    30-59 22 * 5-10 * 0;
    * 23 * 5-10 * 0;

     //Winter
     * * * 1-4,11-12 * 4;
}

schedule cooling8 {
     //Summer
    * 0-6 * 5-10 * 0;
    0-14 7 * 5-10 * 0;
    15-59 7 * 5-10 * 1;
    * 8-13 * 5-10 * 2;
    0-44 14 * 5-10 * 2;
    45-59 14 * 5-10 * 1;
    * 15-22 * 5-10 * 2;
    0-29 23 * 5-10 * 1;
    30-59 23 * 5-10 * 0;

     //Winter
     * * * 1-4,11-12 * 4;
}

schedule cooling9 {
     //Summer
    * 0-6 * 5-10 * 0;
    0-29 7 * 5-10 * 0;
    30-59 7 * 5-10 * 1;
    * 8-17 * 5-10 * 2;
    0-44 18 * 5-10 * 2;
    45-59 18 * 5-10 * 1;
    * 19-22 * 5-10 * 1;
    * 23 * 5-10 * 0;

     //Winter
     * * * 1-4,11-12 * 4;
}

schedule lighting {
     //weekday-summer
     *  0 * 4-9 1-5 0.7600; *  1 * 4-9 1-5 0.6800; *  2 * 4-9 1-5 0.6500; *  3 * 4-9 1-5 0.6300;
     *  4 * 4-9 1-5 0.6400; *  5 * 4-9 1-5 0.6900; *  6 * 4-9 1-5 0.8000; *  7 * 4-9 1-5 0.9200;
     *  8 * 4-9 1-5 0.9700; *  9 * 4-9 1-5 1.0300; * 10 * 4-9 1-5 1.0500; * 11 * 4-9 1-5 1.0700;
     * 12 * 4-9 1-5 1.0700; * 13 * 4-9 1-5 1.0500; * 14 * 4-9 1-5 1.0300; * 15 * 4-9 1-5 1.0400;
     * 16 * 4-9 1-5 1.1300; * 17 * 4-9 1-5 1.2600; * 18 * 4-9 1-5 1.2700; * 19 * 4-9 1-5 1.2200;
     * 20 * 4-9 1-5 1.2600; * 21 * 4-9 1-5 1.3300; * 22 * 4-9 1-5 1.2100; * 23 * 4-9 1-5 0.9400;

     //weekend-summer
     *  0 * 4-9 6-0 0.7900; *  1 * 4-9 6-0 0.7000; *  2 * 4-9 6-0 0.6600; *  3 * 4-9 6-0 0.6400;
     *  4 * 4-9 6-0 0.6300; *  5 * 4-9 6-0 0.6400; *  6 * 4-9 6-0 0.6800; *  7 * 4-9 6-0 0.8000;
     *  8 * 4-9 6-0 0.9500; *  9 * 4-9 6-0 1.0600; * 10 * 4-9 6-0 1.1000; * 11 * 4-9 6-0 1.1200;
     * 12 * 4-9 6-0 1.1300; * 13 * 4-9 6-0 1.1200; * 14 * 4-9 6-0 1.1000; * 15 * 4-9 6-0 1.0800;
     * 16 * 4-9 6-0 1.1300; * 17 * 4-9 6-0 1.2000; * 18 * 4-9 6-0 1.2000; * 19 * 4-9 6-0 1.1700;
     * 20 * 4-9 6-0 1.2200; * 21 * 4-9 6-0 1.2800; * 22 * 4-9 6-0 1.1600; * 23 * 4-9 6-0 0.9500;

     //weekday-winter
     *  0 * 10-3 1-5 0.7400; *  1 * 10-3 1-5 0.6700; *  2 * 10-3 1-5 0.6400; *  3 * 10-3 1-5 0.6300;
     *  4 * 10-3 1-5 0.6400; *  5 * 10-3 1-5 0.7200; *  6 * 10-3 1-5 0.9600; *  7 * 10-3 1-5 1.1900;
     *  8 * 10-3 1-5 1.1300; *  9 * 10-3 1-5 1.1200; * 10 * 10-3 1-5 1.1100; * 11 * 10-3 1-5 1.1100;
     * 12 * 10-3 1-5 1.0800; * 13 * 10-3 1-5 1.0300; * 14 * 10-3 1-5 1.0000; * 15 * 10-3 1-5 1.0700;
     * 16 * 10-3 1-5 1.2900; * 17 * 10-3 1-5 1.6500; * 18 * 10-3 1-5 1.7100; * 19 * 10-3 1-5 1.6000;
     * 20 * 10-3 1-5 1.5400; * 21 * 10-3 1-5 1.4400; * 22 * 10-3 1-5 1.2200; * 23 * 10-3 1-5 0.9300;

     //weekend-winter
     *  0 * 10-3 6-0 0.8200; *  1 * 10-3 6-0 0.7200; *  2 * 10-3 6-0 0.6700; *  3 * 10-3 6-0 0.6400;
     *  4 * 10-3 6-0 0.6400; *  5 * 10-3 6-0 0.6600; *  6 * 10-3 6-0 0.7300; *  7 * 10-3 6-0 0.8900;
     *  8 * 10-3 6-0 1.1000; *  9 * 10-3 6-0 1.2300; * 10 * 10-3 6-0 1.3000; * 11 * 10-3 6-0 1.3500;
     * 12 * 10-3 6-0 1.3800; * 13 * 10-3 6-0 1.3500; * 14 * 10-3 6-0 1.3200; * 15 * 10-3 6-0 1.3400;
     * 16 * 10-3 6-0 1.4800; * 17 * 10-3 6-0 1.7100; * 18 * 10-3 6-0 1.7200; * 19 * 10-3 6-0 1.6100;
     * 20 * 10-3 6-0 1.5400; * 21 * 10-3 6-0 1.4400; * 22 * 10-3 6-0 1.2500; * 23 * 10-3 6-0 0.9900;
}

schedule billing {
     //Winter
    * * * 1-4,11-12 * 0.070;
        //Summer
     * * * 5-10 * 0.080;
}

module climate;
module tape;
module powerflow {
     solver_method NR;
}
module residential {
     implicit_enduses NONE;
}

object climate {
     name "climate_file";
     tmyfile "WA-Yakima.tmy2";
}

object node {
     bustype SWING;
     name ROOT;
     phases ABCN;
     nominal_voltage 7200;
}

object overhead_line_conductor {
      name CU_AL;
      geometric_mean_radius 0.4 cm;
      resistance 0.1 ohm/km;
}

object line_spacing {
      name HORIZONTAL_ABCN;
      distance_AB 4 ft;
      distance_BC 4 ft;
      distance_AC 4 ft;
      distance_AN 6 ft;
      distance_BN 6 ft;
      distance_CN 6 ft;
}

object line_configuration {
      name OHL_config;
      conductor_A CU_AL;
      conductor_B CU_AL;
      conductor_C CU_AL;
      conductor_N CU_AL;
      spacing HORIZONTAL_ABCN;
}

object overhead_line {
      phases ABCN;
      from ROOT;
      to transformer_meter;
      length 25;
      configuration OHL_config;
}

object meter {
     name transformer_meter;
     phases ABCN;
     nominal_voltage 7200;
     object recorder {
          property measured_real_power,measured_reactive_power,measured_real_energy,measured_reactive_energy;
          limit 8808;
          interval 3600;
          file Fixed_Electric_main_meter.csv;
     };
     object recorder {
          property measured_real_power;
          limit 528480;
          interval 60;
          file Fixed_Electric_driver.csv;
     };
}

object transformer_configuration {
     name default_transformer_A;
     connect_type SINGLE_PHASE_CENTER_TAPPED;
     install_type PADMOUNT;
     primary_voltage 7200 V;
     secondary_voltage 124 V;
     power_rating 250.0;
     powerA_rating 250.0;
     impedance 0.015+0.0675j;
     shunt_impedance 454.5455+2045.4548j;
}

object transformer_configuration {
     name default_transformer_B;
     connect_type SINGLE_PHASE_CENTER_TAPPED;
     install_type PADMOUNT;
     primary_voltage 7200 V;
     secondary_voltage 124 V;
     power_rating 250.0;
     powerB_rating 250.0;
     impedance 0.015+0.0675j;
     shunt_impedance 454.5455+2045.4548j;
}

object transformer_configuration {
     name default_transformer_C;
     connect_type SINGLE_PHASE_CENTER_TAPPED;
     install_type PADMOUNT;
     primary_voltage 7200 V;
     secondary_voltage 124 V;
     power_rating 250.0;
     powerC_rating 250.0;
     impedance 0.015+0.0675j;
     shunt_impedance 454.5455+2045.4548j;
}

object transformer {
     name center_tap_transformer_A;
     phases AS;
     from transformer_meter;
     to triplex_node_A;
     configuration default_transformer_A;
}

object transformer {
     name center_tap_transformer_B;
     phases BS;
     from transformer_meter;
     to triplex_node_B;
     configuration default_transformer_B;
}

object transformer {
     name center_tap_transformer_C;
     phases CS;
     from transformer_meter;
     to triplex_node_C;
     configuration default_transformer_C;
}

object triplex_meter {
     name triplex_node_A;
     phases AS;
     nominal_voltage 124.00;
     bill_mode UNIFORM;
     price 0;
     bill_day 1;
     object recorder {
          file Fixed_Electric_TPM_1_of_3.csv;
          interval 3600;
          limit 8808;
          property measured_real_energy,monthly_energy;
     };
}

object triplex_meter {
     name triplex_node_B;
     phases BS;
     nominal_voltage 124.00;
     bill_mode UNIFORM;
     price 0;
     bill_day 1;
     object recorder {
          file Fixed_Electric_TPM_2_of_3.csv;
          interval 3600;
          limit 8808;
          property measured_real_energy,monthly_energy;
     };
}

object triplex_meter {
     name triplex_node_C;
     phases CS;
     nominal_voltage 124.00;
     bill_mode UNIFORM;
     price 0;
     bill_day 1;
     object recorder {
          file Fixed_Electric_TPM_3_of_3.csv;
          interval 3600;
          limit 8808;
          property measured_real_energy,monthly_energy;
     };
}

object triplex_line_conductor {
      name 1/0 AA triplex;
      resistance 0.97;
      geometric_mean_radius 0.0111;
}

object triplex_line_configuration {
      name TLCFG;
      conductor_1 1/0 AA triplex;
      conductor_2 1/0 AA triplex;
      conductor_N 1/0 AA triplex;
      insulation_thickness 0.08;
      diameter 0.368;
}

object triplex_line {
     from triplex_node_A;
     to tpm_tiered1_A1;
     phases AS;
     length 1;
     configuration TLCFG;
}

object triplex_meter {
     nominal_voltage 124;
     phases AS;
     name tpm_tiered1_A1;
}

object triplex_meter {
     name tpm_tiered_A1;
     parent tpm_tiered1_A1;
     groupid tiered_meter;
     bill_mode TIERED;
     price 0.07854;
     bill_day 1;
     first_tier_price billing*1;
     first_tier_energy 500;
     monthly_fee 10;
     phases AS;
     nominal_voltage 124.00;

     object house {
          name house_A1;
          air_heat_fraction 0.1;
          floor_area 1002;

          //thermal_integrity_level 1
          Rroof 20.3;
          Rwall 11.7;
          Rfloor 4.7;
          glazing_layers 1;
          glass_type 1;
          glazing_treatment 1;
          window_frame 1;
          Rdoors 2.2;
          airchange_per_hour 1.5;

          window_wall_ratio 0.053;
          aspect_ratio 1.50;
          heating_system_type RESISTANCE;
          auxiliary_system_type NONE;
          fan_type ONE_SPEED;
          cooling_system_type ELECTRIC;

          //Age = 7-9 yrs old;
          number_of_stories 2;
          cooling_COP 3.36;
          cooling_setpoint cooling4*0.21+79.751;
          heating_setpoint heating6*0.094+67.785;
          object lights {
               power_factor 1.00;
               heatgain_fraction 0.99;
               installed_power 0.796 kW;
               impedance_fraction 0;
               current_fraction 0;
               power_fraction 1.0;
               shape "type: analog; schedule: lighting; power: 0.796 kW";
               placement INDOOR;
          };
          object recorder {
               property outdoor_temperature,solar_gain;
               limit 8808;
               interval 3600;
               file Fixed_Electric_outside_conditions.csv;
          };
     };
}

object triplex_line {
     from triplex_node_B;
     to tpm_tiered1_B1;
     phases BS;
     length 1;
     configuration TLCFG;
}

object triplex_meter {
     nominal_voltage 124;
     phases BS;
     name tpm_tiered1_B1;
}

object triplex_meter {
     name tpm_tiered_B1;
     parent tpm_tiered1_B1;
     groupid tiered_meter;
     bill_mode TIERED;
     price 0.07854;
     bill_day 1;
     first_tier_price billing*1;
     first_tier_energy 500;
     monthly_fee 10;
     phases BS;
     nominal_voltage 124.00;

     object house {
          name house_B1;
          air_heat_fraction 0.1;
          floor_area 306;

          //thermal_integrity_level 5
          Rroof 28.8;
          Rwall 12.9;
          Rfloor 2.6;
          glazing_layers 2;
          glass_type 2;
          glazing_treatment 2;
          window_frame 2;
          Rdoors 2.7;
          airchange_per_hour 0.5;

          window_wall_ratio 0.194;
          aspect_ratio 1.50;
          heating_system_type HEAT_PUMP;
          auxiliary_system_type ELECTRIC;
          fan_type TWO_SPEED;
          cooling_system_type HEAT_PUMP;

          //Age = 5-7 yrs old;
          number_of_stories 2;
          cooling_COP 3.45;
          cooling_setpoint cooling5*0.99+73.242;
          heating_setpoint heating6*1.254+70.899;
          object lights {
               power_factor 1.00;
               heatgain_fraction 0.99;
               installed_power 0.479 kW;
               impedance_fraction 0;
               current_fraction 0;
               power_fraction 1.0;
               shape "type: analog; schedule: lighting; power: 0.479 kW";
               placement INDOOR;
          };
     };
}

object triplex_line {
     from triplex_node_C;
     to tpm_tiered1_C1;
     phases CS;
     length 1;
     configuration TLCFG;
}

object triplex_meter {
     nominal_voltage 124;
     phases CS;
     name tpm_tiered1_C1;
}

object triplex_meter {
     name tpm_tiered_C1;
     parent tpm_tiered1_C1;
     groupid tiered_meter;
     bill_mode TIERED;
     price 0.07854;
     bill_day 1;
     first_tier_price billing*1;
     first_tier_energy 500;
     monthly_fee 10;
     phases CS;
     nominal_voltage 124.00;

     object house {
          name house_C1;
          air_heat_fraction 0.1;
          floor_area 2100;

          //thermal_integrity_level 4
          Rroof 28.8;
          Rwall 11.7;
          Rfloor 6.8;
          glazing_layers 2;
          glass_type 1;
          glazing_treatment 1;
          window_frame 2;
          Rdoors 2.2;
          airchange_per_hour 0.5;

          window_wall_ratio 0.190;
          aspect_ratio 1.50;
          heating_system_type HEAT_PUMP;
          auxiliary_system_type ELECTRIC;
          fan_type TWO_SPEED;
          cooling_system_type HEAT_PUMP;

          //Age = 1-3 yrs old;
          number_of_stories 2;
          cooling_COP 3.62;
          cooling_setpoint cooling6*1.61+79.580;
          heating_setpoint heating7*2.267+71.557;
          object lights {
               power_factor 1.00;
               heatgain_fraction 0.99;
               installed_power 1.826 kW;
               impedance_fraction 0;
               current_fraction 0;
               power_fraction 1.0;
               shape "type: analog; schedule: lighting; power: 1.826 kW";
               placement INDOOR;
          };
     };
}

object triplex_line {
     from triplex_node_A;
     to tpm_tiered1_A2;
     phases AS;
     length 1;
     configuration TLCFG;
}

object triplex_meter {
     nominal_voltage 124;
     phases AS;
     name tpm_tiered1_A2;
}

object triplex_meter {
     name tpm_tiered_A2;
     parent tpm_tiered1_A2;
     groupid tiered_meter;
     bill_mode TIERED;
     price 0.07854;
     bill_day 1;
     first_tier_price billing*1;
     first_tier_energy 500;
     monthly_fee 10;
     phases AS;
     nominal_voltage 124.00;

     object house {
          name house_A2;
          air_heat_fraction 0.1;
          floor_area 2219;

          //thermal_integrity_level 1
          Rroof 20.3;
          Rwall 11.7;
          Rfloor 7.0;
          glazing_layers 1;
          glass_type 1;
          glazing_treatment 1;
          window_frame 1;
          Rdoors 2.2;
          airchange_per_hour 1.5;

          window_wall_ratio 0.091;
          aspect_ratio 1.50;
          heating_system_type RESISTANCE;
          auxiliary_system_type NONE;
          fan_type ONE_SPEED;
          cooling_system_type ELECTRIC;

          //Age = 8-11 yrs old;
          cooling_COP 3.33;
          cooling_setpoint cooling4*0.93+79.461;
          heating_setpoint heating5*1.816+65.294;
          object lights {
               power_factor 1.00;
               heatgain_fraction 0.99;
               installed_power 0.497 kW;
               impedance_fraction 0;
               current_fraction 0;
               power_fraction 1.0;
               shape "type: analog; schedule: lighting; power: 0.497 kW";
               placement INDOOR;
          };
     };
}

object triplex_line {
     from triplex_node_B;
     to tpm_tiered1_B2;
     phases BS;
     length 1;
     configuration TLCFG;
}

object triplex_meter {
     nominal_voltage 124;
     phases BS;
     name tpm_tiered1_B2;
}

object triplex_meter {
     name tpm_tiered_B2;
     parent tpm_tiered1_B2;
     groupid tiered_meter;
     bill_mode TIERED;
     price 0.07854;
     bill_day 1;
     first_tier_price billing*1;
     first_tier_energy 500;
     monthly_fee 10;
     phases BS;
     nominal_voltage 124.00;

     object house {
          name house_B2;
          air_heat_fraction 0.1;
          floor_area 1766;

          //thermal_integrity_level 1
          Rroof 20.3;
          Rwall 11.7;
          Rfloor 6.3;
          glazing_layers 1;
          glass_type 1;
          glazing_treatment 1;
          window_frame 1;
          Rdoors 2.2;
          airchange_per_hour 1.5;

          window_wall_ratio 0.076;
          aspect_ratio 1.50;
          heating_system_type RESISTANCE;
          auxiliary_system_type NONE;
          fan_type ONE_SPEED;
          cooling_system_type ELECTRIC;

          //Age = 8-11 yrs old;
          cooling_COP 3.33;
          cooling_setpoint cooling5*1.74+82.009;
          heating_setpoint heating7*0.916+70.865;
          object lights {
               power_factor 1.00;
               heatgain_fraction 0.99;
               installed_power 0.712 kW;
               impedance_fraction 0;
               current_fraction 0;
               power_fraction 1.0;
               shape "type: analog; schedule: lighting; power: 0.712 kW";
               placement INDOOR;
          };
     };
}

object triplex_line {
     from triplex_node_C;
     to tpm_tiered1_C2;
     phases CS;
     length 1;
     configuration TLCFG;
}

object triplex_meter {
     nominal_voltage 124;
     phases CS;
     name tpm_tiered1_C2;
}

object triplex_meter {
     name tpm_tiered_C2;
     parent tpm_tiered1_C2;
     groupid tiered_meter;
     bill_mode TIERED;
     price 0.07854;
     bill_day 1;
     first_tier_price billing*1;
     first_tier_energy 500;
     monthly_fee 10;
     phases CS;
     nominal_voltage 124.00;

     object house {
          name house_C2;
          air_heat_fraction 0.1;
          floor_area 808;

          //thermal_integrity_level 1
          Rroof 20.3;
          Rwall 11.7;
          Rfloor 4.2;
          glazing_layers 1;
          glass_type 1;
          glazing_treatment 1;
          window_frame 1;
          Rdoors 2.2;
          airchange_per_hour 1.5;

          window_wall_ratio 0.091;
          aspect_ratio 1.50;
          heating_system_type RESISTANCE;
          auxiliary_system_type NONE;
          fan_type ONE_SPEED;
          cooling_system_type ELECTRIC;

          //Age = 11-16 yrs old;
          cooling_COP 3.31;
          cooling_setpoint cooling4*1.55+71.111;
          heating_setpoint heating7*2.126+65.138;
          object lights {
               power_factor 1.00;
               heatgain_fraction 0.99;
               installed_power 0.790 kW;
               impedance_fraction 0;
               current_fraction 0;
               power_fraction 1.0;
               shape "type: analog; schedule: lighting; power: 0.790 kW";
               placement INDOOR;
          };
     };
}

object triplex_line {
     from triplex_node_A;
     to tpm_tiered1_A3;
     phases AS;
     length 1;
     configuration TLCFG;
}

object triplex_meter {
     nominal_voltage 124;
     phases AS;
     name tpm_tiered1_A3;
}

object triplex_meter {
     name tpm_tiered_A3;
     parent tpm_tiered1_A3;
     groupid tiered_meter;
     bill_mode TIERED;
     price 0.07854;
     bill_day 1;
     first_tier_price billing*1;
     first_tier_energy 500;
     monthly_fee 10;
     phases AS;
     nominal_voltage 124.00;

     object house {
          name house_A3;
          air_heat_fraction 0.1;
          floor_area 1672;

          //thermal_integrity_level 1
          Rroof 20.3;
          Rwall 11.7;
          Rfloor 6.1;
          glazing_layers 1;
          glass_type 1;
          glazing_treatment 1;
          window_frame 1;
          Rdoors 2.2;
          airchange_per_hour 1.5;

          window_wall_ratio 0.163;
          aspect_ratio 1.50;
          heating_system_type RESISTANCE;
          auxiliary_system_type NONE;
          fan_type ONE_SPEED;
          cooling_system_type ELECTRIC;

          //Age = 16-21 yrs old;
          cooling_COP 2.90;
          cooling_setpoint cooling4*1.92+66.036;
          heating_setpoint heating6*1.457+63.061;
          object lights {
               power_factor 1.00;
               heatgain_fraction 0.99;
               installed_power 0.787 kW;
               impedance_fraction 0;
               current_fraction 0;
               power_fraction 1.0;
               shape "type: analog; schedule: lighting; power: 0.787 kW";
               placement INDOOR;
          };
     };
}

object triplex_line {
     from triplex_node_B;
     to tpm_tiered1_B3;
     phases BS;
     length 1;
     configuration TLCFG;
}

object triplex_meter {
     nominal_voltage 124;
     phases BS;
     name tpm_tiered1_B3;
}

object triplex_meter {
     name tpm_tiered_B3;
     parent tpm_tiered1_B3;
     groupid tiered_meter;
     bill_mode TIERED;
     price 0.07854;
     bill_day 1;
     first_tier_price billing*1;
     first_tier_energy 500;
     monthly_fee 10;
     phases BS;
     nominal_voltage 124.00;

     object house {
          name house_B3;
          air_heat_fraction 0.1;
          floor_area 928;

          //thermal_integrity_level 6
          Rroof 37.4;
          Rwall 18.2;
          Rfloor 5.4;
          glazing_layers 2;
          glass_type 2;
          glazing_treatment 3;
          window_frame 4;
          Rdoors 6.3;
          airchange_per_hour 0.3;

          window_wall_ratio 0.206;
          aspect_ratio 1.50;
          heating_system_type HEAT_PUMP;
          auxiliary_system_type ELECTRIC;
          fan_type TWO_SPEED;
          cooling_system_type HEAT_PUMP;

          //Age = 16-21 yrs old;
          cooling_COP 2.90;
          cooling_setpoint cooling3*1.62+78.526;
          heating_setpoint heating6*0.852+69.385;
          object lights {
               power_factor 1.00;
               heatgain_fraction 0.99;
               installed_power 0.762 kW;
               impedance_fraction 0;
               current_fraction 0;
               power_fraction 1.0;
               shape "type: analog; schedule: lighting; power: 0.762 kW";
               placement INDOOR;
          };
     };
}

object triplex_line {
     from triplex_node_C;
     to tpm_tiered1_C3;
     phases CS;
     length 1;
     configuration TLCFG;
}

object triplex_meter {
     nominal_voltage 124;
     phases CS;
     name tpm_tiered1_C3;
}

object triplex_meter {
     name tpm_tiered_C3;
     parent tpm_tiered1_C3;
     groupid tiered_meter;
     bill_mode TIERED;
     price 0.07854;
     bill_day 1;
     first_tier_price billing*1;
     first_tier_energy 500;
     monthly_fee 10;
     phases CS;
     nominal_voltage 124.00;

     object house {
          name house_C3;
          air_heat_fraction 0.1;
          floor_area 2193;

          //thermal_integrity_level 1
          Rroof 20.3;
          Rwall 11.7;
          Rfloor 7.0;
          glazing_layers 1;
          glass_type 1;
          glazing_treatment 1;
          window_frame 1;
          Rdoors 2.2;
          airchange_per_hour 1.5;

          window_wall_ratio 0.142;
          aspect_ratio 1.50;
          heating_system_type RESISTANCE;
          auxiliary_system_type NONE;
          fan_type ONE_SPEED;
          cooling_system_type ELECTRIC;

          //Age = 5-7 yrs old;
          number_of_stories 2;
          cooling_COP 3.44;
          cooling_setpoint cooling5*0.78+83.295;
          heating_setpoint heating7*1.105+74.163;
          object lights {
               power_factor 1.00;
               heatgain_fraction 0.99;
               installed_power 1.189 kW;
               impedance_fraction 0;
               current_fraction 0;
               power_fraction 1.0;
               shape "type: analog; schedule: lighting; power: 1.189 kW";
               placement INDOOR;
          };
     };
}

object triplex_line {
     from triplex_node_A;
     to tpm_tiered1_A4;
     phases AS;
     length 1;
     configuration TLCFG;
}

object triplex_meter {
     nominal_voltage 124;
     phases AS;
     name tpm_tiered1_A4;
}

object triplex_meter {
     name tpm_tiered_A4;
     parent tpm_tiered1_A4;
     groupid tiered_meter;
     bill_mode TIERED;
     price 0.07854;
     bill_day 1;
     first_tier_price billing*1;
     first_tier_energy 500;
     monthly_fee 10;
     phases AS;
     nominal_voltage 124.00;

     object house {
          name house_A4;
          air_heat_fraction 0.1;
          floor_area 1846;

          //thermal_integrity_level 6
          Rroof 37.4;
          Rwall 18.2;
          Rfloor 7.6;
          glazing_layers 2;
          glass_type 2;
          glazing_treatment 3;
          window_frame 4;
          Rdoors 6.3;
          airchange_per_hour 0.3;

          window_wall_ratio 0.151;
          aspect_ratio 1.50;
          heating_system_type HEAT_PUMP;
          auxiliary_system_type ELECTRIC;
          fan_type TWO_SPEED;
          cooling_system_type HEAT_PUMP;

          //Age = 3-5 yrs old;
          number_of_stories 2;
          cooling_COP 3.50;
          cooling_setpoint cooling4*1.26+73.303;
          heating_setpoint heating6*0.667+65.522;
          object lights {
               power_factor 1.00;
               heatgain_fraction 0.99;
               installed_power 1.469 kW;
               impedance_fraction 0;
               current_fraction 0;
               power_fraction 1.0;
               shape "type: analog; schedule: lighting; power: 1.469 kW";
               placement INDOOR;
          };
     };
}

object triplex_line {
     from triplex_node_B;
     to tpm_tiered1_B4;
     phases BS;
     length 1;
     configuration TLCFG;
}

object triplex_meter {
     nominal_voltage 124;
     phases BS;
     name tpm_tiered1_B4;
}

object triplex_meter {
     name tpm_tiered_B4;
     parent tpm_tiered1_B4;
     groupid tiered_meter;
     bill_mode TIERED;
     price 0.07854;
     bill_day 1;
     first_tier_price billing*1;
     first_tier_energy 500;
     monthly_fee 10;
     phases BS;
     nominal_voltage 124.00;

     object house {
          name house_B4;
          air_heat_fraction 0.1;
          floor_area 1555;

          //thermal_integrity_level 0
          Rroof 13.4;
          Rwall 4.2;
          Rfloor 5.9;
          glazing_layers 1;
          glass_type 1;
          glazing_treatment 1;
          window_frame 1;
          Rdoors 2.2;
          airchange_per_hour 1.5;

          window_wall_ratio 0.165;
          aspect_ratio 1.50;
          heating_system_type RESISTANCE;
          auxiliary_system_type NONE;
          fan_type ONE_SPEED;
          cooling_system_type ELECTRIC;

          //Age = 20-31 yrs old;
          cooling_COP 2.31;
          cooling_setpoint cooling6*0.64+71.793;
          heating_setpoint heating5*2.392+67.099;
          object lights {
               power_factor 1.00;
               heatgain_fraction 0.99;
               installed_power 0.933 kW;
               impedance_fraction 0;
               current_fraction 0;
               power_fraction 1.0;
               shape "type: analog; schedule: lighting; power: 0.933 kW";
               placement INDOOR;
          };
     };
}

object triplex_line {
     from triplex_node_C;
     to tpm_tiered1_C4;
     phases CS;
     length 1;
     configuration TLCFG;
}

object triplex_meter {
     nominal_voltage 124;
     phases CS;
     name tpm_tiered1_C4;
}

object triplex_meter {
     name tpm_tiered_C4;
     parent tpm_tiered1_C4;
     groupid tiered_meter;
     bill_mode TIERED;
     price 0.07854;
     bill_day 1;
     first_tier_price billing*1;
     first_tier_energy 500;
     monthly_fee 10;
     phases CS;
     nominal_voltage 124.00;

     object house {
          name house_C4;
          air_heat_fraction 0.1;
          floor_area 1541;

          //thermal_integrity_level 0
          Rroof 13.4;
          Rwall 4.2;
          Rfloor 5.8;
          glazing_layers 1;
          glass_type 1;
          glazing_treatment 1;
          window_frame 1;
          Rdoors 2.2;
          airchange_per_hour 1.5;

          window_wall_ratio 0.157;
          aspect_ratio 1.50;
          heating_system_type HEAT_PUMP;
          auxiliary_system_type ELECTRIC;
          fan_type TWO_SPEED;
          cooling_system_type HEAT_PUMP;

          //Age = 1-3 yrs old;
          number_of_stories 2;
          cooling_COP 3.61;
          cooling_setpoint cooling7*0.20+78.139;
          heating_setpoint heating5*2.325+71.428;
          object lights {
               power_factor 1.00;
               heatgain_fraction 0.99;
               installed_power 0.917 kW;
               impedance_fraction 0;
               current_fraction 0;
               power_fraction 1.0;
               shape "type: analog; schedule: lighting; power: 0.917 kW";
               placement INDOOR;
          };
     };
}

object triplex_line {
     from triplex_node_A;
     to tpm_tiered1_A5;
     phases AS;
     length 1;
     configuration TLCFG;
}

object triplex_meter {
     nominal_voltage 124;
     phases AS;
     name tpm_tiered1_A5;
}

object triplex_meter {
     name tpm_tiered_A5;
     parent tpm_tiered1_A5;
     groupid tiered_meter;
     bill_mode TIERED;
     price 0.07854;
     bill_day 1;
     first_tier_price billing*1;
     first_tier_energy 500;
     monthly_fee 10;
     phases AS;
     nominal_voltage 124.00;

     object house {
          name house_A5;
          air_heat_fraction 0.1;
          floor_area 2649;

          //thermal_integrity_level 0
          Rroof 13.4;
          Rwall 4.2;
          Rfloor 7.7;
          glazing_layers 1;
          glass_type 1;
          glazing_treatment 1;
          window_frame 1;
          Rdoors 2.2;
          airchange_per_hour 1.5;

          window_wall_ratio 0.072;
          aspect_ratio 1.50;
          heating_system_type HEAT_PUMP;
          auxiliary_system_type ELECTRIC;
          fan_type TWO_SPEED;
          cooling_system_type HEAT_PUMP;

          //Age = 8-11 yrs old;
          cooling_COP 3.33;
          cooling_setpoint cooling5*0.20+81.390;
          heating_setpoint heating7*1.912+66.296;
          object lights {
               power_factor 1.00;
               heatgain_fraction 0.99;
               installed_power 1.739 kW;
               impedance_fraction 0;
               current_fraction 0;
               power_fraction 1.0;
               shape "type: analog; schedule: lighting; power: 1.739 kW";
               placement INDOOR;
          };
     };
}

object triplex_line {
     from triplex_node_B;
     to tpm_tiered1_B5;
     phases BS;
     length 1;
     configuration TLCFG;
}

object triplex_meter {
     nominal_voltage 124;
     phases BS;
     name tpm_tiered1_B5;
}

object triplex_meter {
     name tpm_tiered_B5;
     parent tpm_tiered1_B5;
     groupid tiered_meter;
     bill_mode TIERED;
     price 0.07854;
     bill_day 1;
     first_tier_price billing*1;
     first_tier_energy 500;
     monthly_fee 10;
     phases BS;
     nominal_voltage 124.00;

     object house {
          name house_B5;
          air_heat_fraction 0.1;
          floor_area 1411;

          //thermal_integrity_level 4
          Rroof 28.8;
          Rwall 11.7;
          Rfloor 5.6;
          glazing_layers 2;
          glass_type 1;
          glazing_treatment 1;
          window_frame 2;
          Rdoors 2.2;
          airchange_per_hour 0.5;

          window_wall_ratio 0.162;
          aspect_ratio 1.50;
          heating_system_type RESISTANCE;
          auxiliary_system_type NONE;
          fan_type ONE_SPEED;
          cooling_system_type ELECTRIC;

          //Age = 7-9 yrs old;
          number_of_stories 2;
          cooling_COP 3.34;
          cooling_setpoint cooling4*1.99+69.928;
          heating_setpoint heating5*1.920+66.568;
          object lights {
               power_factor 1.00;
               heatgain_fraction 0.99;
               installed_power 0.882 kW;
               impedance_fraction 0;
               current_fraction 0;
               power_fraction 1.0;
               shape "type: analog; schedule: lighting; power: 0.882 kW";
               placement INDOOR;
          };
     };
}

object triplex_line {
     from triplex_node_C;
     to tpm_tiered1_C5;
     phases CS;
     length 1;
     configuration TLCFG;
}

object triplex_meter {
     nominal_voltage 124;
     phases CS;
     name tpm_tiered1_C5;
}

object triplex_meter {
     name tpm_tiered_C5;
     parent tpm_tiered1_C5;
     groupid tiered_meter;
     bill_mode TIERED;
     price 0.07854;
     bill_day 1;
     first_tier_price billing*1;
     first_tier_energy 500;
     monthly_fee 10;
     phases CS;
     nominal_voltage 124.00;

     object house {
          name house_C5;
          air_heat_fraction 0.1;
          floor_area 2043;

          //thermal_integrity_level 5
          Rroof 28.8;
          Rwall 12.9;
          Rfloor 6.7;
          glazing_layers 2;
          glass_type 2;
          glazing_treatment 2;
          window_frame 2;
          Rdoors 2.7;
          airchange_per_hour 0.5;

          window_wall_ratio 0.180;
          aspect_ratio 1.50;
          heating_system_type RESISTANCE;
          auxiliary_system_type NONE;
          fan_type ONE_SPEED;
          cooling_system_type ELECTRIC;

          //Age = 1-3 yrs old;
          number_of_stories 2;
          cooling_COP 3.64;
          cooling_setpoint cooling7*0.29+67.062;
          heating_setpoint heating6*2.665+62.665;
          object lights {
               power_factor 1.00;
               heatgain_fraction 0.99;
               installed_power 0.997 kW;
               impedance_fraction 0;
               current_fraction 0;
               power_fraction 1.0;
               shape "type: analog; schedule: lighting; power: 0.997 kW";
               placement INDOOR;
          };
     };
}

object triplex_line {
     from triplex_node_A;
     to tpm_tiered1_A6;
     phases AS;
     length 1;
     configuration TLCFG;
}

object triplex_meter {
     nominal_voltage 124;
     phases AS;
     name tpm_tiered1_A6;
}

object triplex_meter {
     name tpm_tiered_A6;
     parent tpm_tiered1_A6;
     groupid tiered_meter;
     bill_mode TIERED;
     price 0.07854;
     bill_day 1;
     first_tier_price billing*1;
     first_tier_energy 500;
     monthly_fee 10;
     phases AS;
     nominal_voltage 124.00;

     object house {
          name house_A6;
          air_heat_fraction 0.1;
          floor_area 1853;

          //thermal_integrity_level 1
          Rroof 20.3;
          Rwall 11.7;
          Rfloor 6.4;
          glazing_layers 1;
          glass_type 1;
          glazing_treatment 1;
          window_frame 1;
          Rdoors 2.2;
          airchange_per_hour 1.5;

          window_wall_ratio 0.180;
          aspect_ratio 1.50;
          heating_system_type RESISTANCE;
          auxiliary_system_type NONE;
...